*SPEF "ieee 1481-1999"
*DESIGN "tt_um_sushma1012_lfsr_prng"
*DATE "18:57:14 Wednesday April 15, 2026"
*VENDOR "The OpenROAD Project"
*PROGRAM "OpenROAD"
*VERSION "dcf36133a369abc8f3c5e5738cd4d82e4903c0e0"
*DESIGN_FLOW "NAME_SCOPE LOCAL" "PIN_CAP NONE"
*DIVIDER /
*DELIMITER :
*BUS_DELIMITER []
*T_UNIT 1 NS
*C_UNIT 1 PF
*R_UNIT 1 OHM
*L_UNIT 1 HENRY

*NAME_MAP
*3 clk
*4 ena
*5 rst_n
*6 ui_in[0]
*7 ui_in[1]
*8 ui_in[2]
*9 ui_in[3]
*10 ui_in[4]
*11 ui_in[5]
*12 ui_in[6]
*13 ui_in[7]
*14 uio_in[0]
*15 uio_in[1]
*16 uio_in[2]
*17 uio_in[3]
*18 uio_in[4]
*19 uio_in[5]
*20 uio_in[6]
*21 uio_in[7]
*22 net41
*23 net42
*24 net43
*25 net44
*26 net45
*27 net46
*28 net47
*29 net48
*30 uio_out[0]
*31 uio_out[1]
*32 uio_out[2]
*33 uio_out[3]
*34 uio_out[4]
*35 uio_out[5]
*36 uio_out[6]
*37 uio_out[7]
*38 uo_out[0]
*39 uo_out[1]
*40 uo_out[2]
*41 uo_out[3]
*42 uo_out[4]
*43 uo_out[5]
*44 uo_out[6]
*45 net
*46 _000_
*47 _001_
*48 _002_
*49 _003_
*50 _004_
*51 _005_
*52 _006_
*53 _007_
*54 _008_
*55 _009_
*56 _010_
*57 _011_
*58 _012_
*59 _013_
*60 _014_
*61 _015_
*62 _016_
*63 _017_
*64 _018_
*65 _019_
*66 _020_
*67 _021_
*68 _022_
*69 _023_
*70 _024_
*71 _025_
*72 _026_
*73 _027_
*74 _028_
*75 _029_
*76 _030_
*77 _031_
*78 _032_
*79 _033_
*80 _034_
*81 _035_
*82 _036_
*83 _037_
*84 _038_
*85 _039_
*86 _040_
*87 _041_
*88 _042_
*89 _043_
*90 _044_
*91 _045_
*92 clknet_0_clk
*93 clknet_1_0__leaf_clk
*94 clknet_1_1__leaf_clk
*95 lfsr\[0\]
*96 lfsr\[10\]
*97 lfsr\[11\]
*98 lfsr\[12\]
*99 lfsr\[13\]
*100 lfsr\[14\]
*101 lfsr\[15\]
*102 lfsr\[1\]
*103 lfsr\[2\]
*104 lfsr\[3\]
*105 lfsr\[4\]
*106 lfsr\[5\]
*107 lfsr\[6\]
*108 lfsr\[7\]
*109 lfsr\[8\]
*110 lfsr\[9\]
*111 net1
*112 net10
*113 net11
*114 net12
*115 net13
*116 net14
*117 net15
*118 net16
*119 net17
*120 net18
*121 net19
*122 net2
*123 net20
*124 net21
*125 net22
*126 net23
*127 net24
*128 net25
*129 net26
*130 net27
*131 net28
*132 net29
*133 net3
*134 net30
*135 net31
*136 net32
*137 net33
*138 net34
*139 net35
*140 net36
*141 net37
*142 net38
*143 net39
*144 net4
*145 net40
*146 net49
*147 net5
*148 net50
*149 net51
*150 net52
*151 net53
*152 net54
*153 net55
*154 net56
*155 net57
*156 net58
*157 net59
*158 net6
*159 net60
*160 net61
*161 net62
*162 net63
*163 net64
*164 net65
*165 net66
*166 net67
*167 net68
*168 net69
*169 net7
*170 net70
*171 net71
*172 net72
*173 net8
*174 net9
*175 FILLER_0_100
*176 FILLER_0_103
*177 FILLER_0_106
*178 FILLER_0_109
*179 FILLER_0_113
*180 FILLER_0_116
*181 FILLER_0_119
*182 FILLER_0_12
*183 FILLER_0_122
*184 FILLER_0_125
*185 FILLER_0_128
*186 FILLER_0_131
*187 FILLER_0_134
*188 FILLER_0_137
*189 FILLER_0_141
*190 FILLER_0_144
*191 FILLER_0_147
*192 FILLER_0_15
*193 FILLER_0_150
*194 FILLER_0_153
*195 FILLER_0_156
*196 FILLER_0_159
*197 FILLER_0_162
*198 FILLER_0_165
*199 FILLER_0_169
*200 FILLER_0_172
*201 FILLER_0_175
*202 FILLER_0_178
*203 FILLER_0_18
*204 FILLER_0_181
*205 FILLER_0_184
*206 FILLER_0_187
*207 FILLER_0_190
*208 FILLER_0_193
*209 FILLER_0_197
*210 FILLER_0_200
*211 FILLER_0_203
*212 FILLER_0_206
*213 FILLER_0_209
*214 FILLER_0_21
*215 FILLER_0_212
*216 FILLER_0_215
*217 FILLER_0_218
*218 FILLER_0_221
*219 FILLER_0_225
*220 FILLER_0_228
*221 FILLER_0_231
*222 FILLER_0_234
*223 FILLER_0_237
*224 FILLER_0_24
*225 FILLER_0_240
*226 FILLER_0_243
*227 FILLER_0_246
*228 FILLER_0_249
*229 FILLER_0_253
*230 FILLER_0_256
*231 FILLER_0_259
*232 FILLER_0_262
*233 FILLER_0_265
*234 FILLER_0_268
*235 FILLER_0_27
*236 FILLER_0_271
*237 FILLER_0_274
*238 FILLER_0_277
*239 FILLER_0_281
*240 FILLER_0_284
*241 FILLER_0_287
*242 FILLER_0_29
*243 FILLER_0_290
*244 FILLER_0_293
*245 FILLER_0_296
*246 FILLER_0_3
*247 FILLER_0_32
*248 FILLER_0_35
*249 FILLER_0_38
*250 FILLER_0_41
*251 FILLER_0_44
*252 FILLER_0_47
*253 FILLER_0_50
*254 FILLER_0_53
*255 FILLER_0_57
*256 FILLER_0_6
*257 FILLER_0_60
*258 FILLER_0_63
*259 FILLER_0_66
*260 FILLER_0_69
*261 FILLER_0_72
*262 FILLER_0_75
*263 FILLER_0_78
*264 FILLER_0_81
*265 FILLER_0_85
*266 FILLER_0_88
*267 FILLER_0_9
*268 FILLER_0_91
*269 FILLER_0_94
*270 FILLER_0_97
*271 FILLER_10_100
*272 FILLER_10_103
*273 FILLER_10_106
*274 FILLER_10_109
*275 FILLER_10_112
*276 FILLER_10_12
*277 FILLER_10_135
*278 FILLER_10_138
*279 FILLER_10_141
*280 FILLER_10_144
*281 FILLER_10_147
*282 FILLER_10_15
*283 FILLER_10_150
*284 FILLER_10_153
*285 FILLER_10_156
*286 FILLER_10_159
*287 FILLER_10_162
*288 FILLER_10_165
*289 FILLER_10_168
*290 FILLER_10_171
*291 FILLER_10_174
*292 FILLER_10_18
*293 FILLER_10_183
*294 FILLER_10_186
*295 FILLER_10_189
*296 FILLER_10_192
*297 FILLER_10_195
*298 FILLER_10_197
*299 FILLER_10_200
*300 FILLER_10_21
*301 FILLER_10_221
*302 FILLER_10_224
*303 FILLER_10_227
*304 FILLER_10_230
*305 FILLER_10_233
*306 FILLER_10_236
*307 FILLER_10_239
*308 FILLER_10_24
*309 FILLER_10_242
*310 FILLER_10_245
*311 FILLER_10_248
*312 FILLER_10_251
*313 FILLER_10_253
*314 FILLER_10_256
*315 FILLER_10_259
*316 FILLER_10_262
*317 FILLER_10_265
*318 FILLER_10_268
*319 FILLER_10_27
*320 FILLER_10_278
*321 FILLER_10_281
*322 FILLER_10_284
*323 FILLER_10_287
*324 FILLER_10_29
*325 FILLER_10_290
*326 FILLER_10_293
*327 FILLER_10_296
*328 FILLER_10_3
*329 FILLER_10_32
*330 FILLER_10_35
*331 FILLER_10_38
*332 FILLER_10_41
*333 FILLER_10_44
*334 FILLER_10_47
*335 FILLER_10_50
*336 FILLER_10_53
*337 FILLER_10_56
*338 FILLER_10_59
*339 FILLER_10_6
*340 FILLER_10_62
*341 FILLER_10_65
*342 FILLER_10_68
*343 FILLER_10_71
*344 FILLER_10_74
*345 FILLER_10_77
*346 FILLER_10_80
*347 FILLER_10_83
*348 FILLER_10_85
*349 FILLER_10_88
*350 FILLER_10_9
*351 FILLER_10_91
*352 FILLER_10_94
*353 FILLER_10_97
*354 FILLER_11_102
*355 FILLER_11_12
*356 FILLER_11_121
*357 FILLER_11_124
*358 FILLER_11_127
*359 FILLER_11_130
*360 FILLER_11_133
*361 FILLER_11_136
*362 FILLER_11_139
*363 FILLER_11_142
*364 FILLER_11_145
*365 FILLER_11_148
*366 FILLER_11_15
*367 FILLER_11_151
*368 FILLER_11_154
*369 FILLER_11_157
*370 FILLER_11_160
*371 FILLER_11_163
*372 FILLER_11_166
*373 FILLER_11_169
*374 FILLER_11_18
*375 FILLER_11_193
*376 FILLER_11_196
*377 FILLER_11_199
*378 FILLER_11_21
*379 FILLER_11_221
*380 FILLER_11_233
*381 FILLER_11_236
*382 FILLER_11_239
*383 FILLER_11_24
*384 FILLER_11_242
*385 FILLER_11_245
*386 FILLER_11_248
*387 FILLER_11_251
*388 FILLER_11_254
*389 FILLER_11_257
*390 FILLER_11_260
*391 FILLER_11_263
*392 FILLER_11_266
*393 FILLER_11_269
*394 FILLER_11_27
*395 FILLER_11_272
*396 FILLER_11_275
*397 FILLER_11_278
*398 FILLER_11_281
*399 FILLER_11_284
*400 FILLER_11_287
*401 FILLER_11_290
*402 FILLER_11_293
*403 FILLER_11_296
*404 FILLER_11_3
*405 FILLER_11_30
*406 FILLER_11_33
*407 FILLER_11_36
*408 FILLER_11_39
*409 FILLER_11_50
*410 FILLER_11_53
*411 FILLER_11_57
*412 FILLER_11_6
*413 FILLER_11_60
*414 FILLER_11_63
*415 FILLER_11_66
*416 FILLER_11_69
*417 FILLER_11_72
*418 FILLER_11_75
*419 FILLER_11_78
*420 FILLER_11_81
*421 FILLER_11_84
*422 FILLER_11_87
*423 FILLER_11_9
*424 FILLER_11_90
*425 FILLER_11_93
*426 FILLER_11_96
*427 FILLER_11_99
*428 FILLER_12_100
*429 FILLER_12_103
*430 FILLER_12_106
*431 FILLER_12_12
*432 FILLER_12_130
*433 FILLER_12_133
*434 FILLER_12_136
*435 FILLER_12_139
*436 FILLER_12_141
*437 FILLER_12_144
*438 FILLER_12_15
*439 FILLER_12_153
*440 FILLER_12_156
*441 FILLER_12_159
*442 FILLER_12_162
*443 FILLER_12_165
*444 FILLER_12_168
*445 FILLER_12_171
*446 FILLER_12_174
*447 FILLER_12_177
*448 FILLER_12_18
*449 FILLER_12_180
*450 FILLER_12_183
*451 FILLER_12_186
*452 FILLER_12_189
*453 FILLER_12_192
*454 FILLER_12_195
*455 FILLER_12_197
*456 FILLER_12_200
*457 FILLER_12_203
*458 FILLER_12_206
*459 FILLER_12_209
*460 FILLER_12_21
*461 FILLER_12_232
*462 FILLER_12_235
*463 FILLER_12_238
*464 FILLER_12_24
*465 FILLER_12_241
*466 FILLER_12_244
*467 FILLER_12_247
*468 FILLER_12_250
*469 FILLER_12_253
*470 FILLER_12_256
*471 FILLER_12_259
*472 FILLER_12_27
*473 FILLER_12_281
*474 FILLER_12_284
*475 FILLER_12_287
*476 FILLER_12_29
*477 FILLER_12_290
*478 FILLER_12_293
*479 FILLER_12_296
*480 FILLER_12_3
*481 FILLER_12_32
*482 FILLER_12_35
*483 FILLER_12_38
*484 FILLER_12_41
*485 FILLER_12_44
*486 FILLER_12_47
*487 FILLER_12_57
*488 FILLER_12_6
*489 FILLER_12_60
*490 FILLER_12_63
*491 FILLER_12_66
*492 FILLER_12_69
*493 FILLER_12_72
*494 FILLER_12_75
*495 FILLER_12_78
*496 FILLER_12_81
*497 FILLER_12_85
*498 FILLER_12_88
*499 FILLER_12_9
*500 FILLER_12_91
*501 FILLER_12_94
*502 FILLER_12_97
*503 FILLER_13_102
*504 FILLER_13_105
*505 FILLER_13_108
*506 FILLER_13_111
*507 FILLER_13_12
*508 FILLER_13_129
*509 FILLER_13_132
*510 FILLER_13_135
*511 FILLER_13_138
*512 FILLER_13_141
*513 FILLER_13_144
*514 FILLER_13_147
*515 FILLER_13_15
*516 FILLER_13_150
*517 FILLER_13_153
*518 FILLER_13_156
*519 FILLER_13_159
*520 FILLER_13_162
*521 FILLER_13_165
*522 FILLER_13_169
*523 FILLER_13_172
*524 FILLER_13_175
*525 FILLER_13_178
*526 FILLER_13_18
*527 FILLER_13_181
*528 FILLER_13_184
*529 FILLER_13_187
*530 FILLER_13_190
*531 FILLER_13_193
*532 FILLER_13_196
*533 FILLER_13_199
*534 FILLER_13_202
*535 FILLER_13_205
*536 FILLER_13_208
*537 FILLER_13_21
*538 FILLER_13_211
*539 FILLER_13_214
*540 FILLER_13_217
*541 FILLER_13_220
*542 FILLER_13_223
*543 FILLER_13_225
*544 FILLER_13_228
*545 FILLER_13_231
*546 FILLER_13_234
*547 FILLER_13_237
*548 FILLER_13_24
*549 FILLER_13_240
*550 FILLER_13_243
*551 FILLER_13_246
*552 FILLER_13_249
*553 FILLER_13_252
*554 FILLER_13_255
*555 FILLER_13_258
*556 FILLER_13_261
*557 FILLER_13_264
*558 FILLER_13_27
*559 FILLER_13_275
*560 FILLER_13_278
*561 FILLER_13_281
*562 FILLER_13_284
*563 FILLER_13_287
*564 FILLER_13_290
*565 FILLER_13_293
*566 FILLER_13_296
*567 FILLER_13_3
*568 FILLER_13_50
*569 FILLER_13_53
*570 FILLER_13_57
*571 FILLER_13_6
*572 FILLER_13_60
*573 FILLER_13_63
*574 FILLER_13_66
*575 FILLER_13_69
*576 FILLER_13_72
*577 FILLER_13_75
*578 FILLER_13_78
*579 FILLER_13_81
*580 FILLER_13_84
*581 FILLER_13_87
*582 FILLER_13_9
*583 FILLER_13_90
*584 FILLER_13_93
*585 FILLER_13_96
*586 FILLER_13_99
*587 FILLER_14_119
*588 FILLER_14_12
*589 FILLER_14_122
*590 FILLER_14_125
*591 FILLER_14_128
*592 FILLER_14_131
*593 FILLER_14_134
*594 FILLER_14_137
*595 FILLER_14_141
*596 FILLER_14_144
*597 FILLER_14_147
*598 FILLER_14_15
*599 FILLER_14_150
*600 FILLER_14_153
*601 FILLER_14_175
*602 FILLER_14_178
*603 FILLER_14_18
*604 FILLER_14_181
*605 FILLER_14_184
*606 FILLER_14_187
*607 FILLER_14_190
*608 FILLER_14_193
*609 FILLER_14_197
*610 FILLER_14_200
*611 FILLER_14_203
*612 FILLER_14_206
*613 FILLER_14_209
*614 FILLER_14_21
*615 FILLER_14_212
*616 FILLER_14_215
*617 FILLER_14_218
*618 FILLER_14_221
*619 FILLER_14_224
*620 FILLER_14_227
*621 FILLER_14_230
*622 FILLER_14_233
*623 FILLER_14_236
*624 FILLER_14_239
*625 FILLER_14_24
*626 FILLER_14_242
*627 FILLER_14_253
*628 FILLER_14_256
*629 FILLER_14_267
*630 FILLER_14_27
*631 FILLER_14_270
*632 FILLER_14_273
*633 FILLER_14_276
*634 FILLER_14_279
*635 FILLER_14_282
*636 FILLER_14_285
*637 FILLER_14_288
*638 FILLER_14_29
*639 FILLER_14_291
*640 FILLER_14_294
*641 FILLER_14_297
*642 FILLER_14_3
*643 FILLER_14_32
*644 FILLER_14_35
*645 FILLER_14_46
*646 FILLER_14_49
*647 FILLER_14_52
*648 FILLER_14_55
*649 FILLER_14_58
*650 FILLER_14_6
*651 FILLER_14_61
*652 FILLER_14_64
*653 FILLER_14_67
*654 FILLER_14_70
*655 FILLER_14_73
*656 FILLER_14_76
*657 FILLER_14_79
*658 FILLER_14_82
*659 FILLER_14_85
*660 FILLER_14_88
*661 FILLER_14_9
*662 FILLER_14_91
*663 FILLER_14_94
*664 FILLER_14_97
*665 FILLER_15_100
*666 FILLER_15_103
*667 FILLER_15_106
*668 FILLER_15_109
*669 FILLER_15_113
*670 FILLER_15_116
*671 FILLER_15_119
*672 FILLER_15_12
*673 FILLER_15_122
*674 FILLER_15_125
*675 FILLER_15_128
*676 FILLER_15_131
*677 FILLER_15_134
*678 FILLER_15_137
*679 FILLER_15_140
*680 FILLER_15_143
*681 FILLER_15_146
*682 FILLER_15_149
*683 FILLER_15_15
*684 FILLER_15_152
*685 FILLER_15_155
*686 FILLER_15_158
*687 FILLER_15_161
*688 FILLER_15_164
*689 FILLER_15_167
*690 FILLER_15_169
*691 FILLER_15_172
*692 FILLER_15_175
*693 FILLER_15_178
*694 FILLER_15_18
*695 FILLER_15_181
*696 FILLER_15_184
*697 FILLER_15_187
*698 FILLER_15_190
*699 FILLER_15_193
*700 FILLER_15_196
*701 FILLER_15_199
*702 FILLER_15_202
*703 FILLER_15_205
*704 FILLER_15_208
*705 FILLER_15_21
*706 FILLER_15_211
*707 FILLER_15_214
*708 FILLER_15_217
*709 FILLER_15_220
*710 FILLER_15_223
*711 FILLER_15_225
*712 FILLER_15_228
*713 FILLER_15_231
*714 FILLER_15_234
*715 FILLER_15_237
*716 FILLER_15_24
*717 FILLER_15_240
*718 FILLER_15_243
*719 FILLER_15_246
*720 FILLER_15_249
*721 FILLER_15_252
*722 FILLER_15_255
*723 FILLER_15_258
*724 FILLER_15_261
*725 FILLER_15_264
*726 FILLER_15_267
*727 FILLER_15_27
*728 FILLER_15_270
*729 FILLER_15_273
*730 FILLER_15_276
*731 FILLER_15_279
*732 FILLER_15_281
*733 FILLER_15_284
*734 FILLER_15_287
*735 FILLER_15_290
*736 FILLER_15_293
*737 FILLER_15_296
*738 FILLER_15_3
*739 FILLER_15_30
*740 FILLER_15_33
*741 FILLER_15_36
*742 FILLER_15_39
*743 FILLER_15_42
*744 FILLER_15_45
*745 FILLER_15_48
*746 FILLER_15_51
*747 FILLER_15_54
*748 FILLER_15_57
*749 FILLER_15_6
*750 FILLER_15_60
*751 FILLER_15_63
*752 FILLER_15_70
*753 FILLER_15_73
*754 FILLER_15_76
*755 FILLER_15_79
*756 FILLER_15_82
*757 FILLER_15_85
*758 FILLER_15_88
*759 FILLER_15_9
*760 FILLER_15_91
*761 FILLER_15_94
*762 FILLER_15_97
*763 FILLER_16_100
*764 FILLER_16_103
*765 FILLER_16_106
*766 FILLER_16_109
*767 FILLER_16_112
*768 FILLER_16_115
*769 FILLER_16_118
*770 FILLER_16_12
*771 FILLER_16_121
*772 FILLER_16_124
*773 FILLER_16_127
*774 FILLER_16_130
*775 FILLER_16_133
*776 FILLER_16_136
*777 FILLER_16_139
*778 FILLER_16_141
*779 FILLER_16_144
*780 FILLER_16_147
*781 FILLER_16_15
*782 FILLER_16_150
*783 FILLER_16_153
*784 FILLER_16_156
*785 FILLER_16_159
*786 FILLER_16_162
*787 FILLER_16_165
*788 FILLER_16_168
*789 FILLER_16_171
*790 FILLER_16_174
*791 FILLER_16_177
*792 FILLER_16_18
*793 FILLER_16_180
*794 FILLER_16_183
*795 FILLER_16_186
*796 FILLER_16_189
*797 FILLER_16_192
*798 FILLER_16_195
*799 FILLER_16_197
*800 FILLER_16_200
*801 FILLER_16_203
*802 FILLER_16_206
*803 FILLER_16_209
*804 FILLER_16_21
*805 FILLER_16_212
*806 FILLER_16_215
*807 FILLER_16_218
*808 FILLER_16_221
*809 FILLER_16_224
*810 FILLER_16_227
*811 FILLER_16_230
*812 FILLER_16_233
*813 FILLER_16_236
*814 FILLER_16_239
*815 FILLER_16_24
*816 FILLER_16_242
*817 FILLER_16_245
*818 FILLER_16_248
*819 FILLER_16_251
*820 FILLER_16_262
*821 FILLER_16_265
*822 FILLER_16_268
*823 FILLER_16_27
*824 FILLER_16_277
*825 FILLER_16_280
*826 FILLER_16_283
*827 FILLER_16_286
*828 FILLER_16_289
*829 FILLER_16_29
*830 FILLER_16_292
*831 FILLER_16_295
*832 FILLER_16_298
*833 FILLER_16_3
*834 FILLER_16_32
*835 FILLER_16_35
*836 FILLER_16_38
*837 FILLER_16_41
*838 FILLER_16_44
*839 FILLER_16_54
*840 FILLER_16_57
*841 FILLER_16_6
*842 FILLER_16_60
*843 FILLER_16_63
*844 FILLER_16_66
*845 FILLER_16_69
*846 FILLER_16_72
*847 FILLER_16_75
*848 FILLER_16_78
*849 FILLER_16_81
*850 FILLER_16_85
*851 FILLER_16_88
*852 FILLER_16_9
*853 FILLER_16_91
*854 FILLER_16_94
*855 FILLER_16_97
*856 FILLER_17_100
*857 FILLER_17_103
*858 FILLER_17_106
*859 FILLER_17_109
*860 FILLER_17_113
*861 FILLER_17_116
*862 FILLER_17_119
*863 FILLER_17_12
*864 FILLER_17_122
*865 FILLER_17_125
*866 FILLER_17_128
*867 FILLER_17_131
*868 FILLER_17_134
*869 FILLER_17_137
*870 FILLER_17_140
*871 FILLER_17_143
*872 FILLER_17_146
*873 FILLER_17_149
*874 FILLER_17_15
*875 FILLER_17_152
*876 FILLER_17_155
*877 FILLER_17_158
*878 FILLER_17_161
*879 FILLER_17_164
*880 FILLER_17_167
*881 FILLER_17_169
*882 FILLER_17_172
*883 FILLER_17_175
*884 FILLER_17_18
*885 FILLER_17_186
*886 FILLER_17_189
*887 FILLER_17_192
*888 FILLER_17_195
*889 FILLER_17_198
*890 FILLER_17_201
*891 FILLER_17_204
*892 FILLER_17_207
*893 FILLER_17_21
*894 FILLER_17_210
*895 FILLER_17_213
*896 FILLER_17_216
*897 FILLER_17_219
*898 FILLER_17_222
*899 FILLER_17_225
*900 FILLER_17_228
*901 FILLER_17_231
*902 FILLER_17_234
*903 FILLER_17_237
*904 FILLER_17_24
*905 FILLER_17_240
*906 FILLER_17_243
*907 FILLER_17_246
*908 FILLER_17_249
*909 FILLER_17_252
*910 FILLER_17_27
*911 FILLER_17_275
*912 FILLER_17_278
*913 FILLER_17_281
*914 FILLER_17_284
*915 FILLER_17_287
*916 FILLER_17_290
*917 FILLER_17_293
*918 FILLER_17_296
*919 FILLER_17_3
*920 FILLER_17_30
*921 FILLER_17_33
*922 FILLER_17_36
*923 FILLER_17_39
*924 FILLER_17_42
*925 FILLER_17_45
*926 FILLER_17_48
*927 FILLER_17_51
*928 FILLER_17_54
*929 FILLER_17_57
*930 FILLER_17_6
*931 FILLER_17_60
*932 FILLER_17_63
*933 FILLER_17_66
*934 FILLER_17_69
*935 FILLER_17_72
*936 FILLER_17_75
*937 FILLER_17_78
*938 FILLER_17_81
*939 FILLER_17_84
*940 FILLER_17_87
*941 FILLER_17_9
*942 FILLER_17_90
*943 FILLER_18_112
*944 FILLER_18_115
*945 FILLER_18_118
*946 FILLER_18_12
*947 FILLER_18_121
*948 FILLER_18_124
*949 FILLER_18_127
*950 FILLER_18_130
*951 FILLER_18_141
*952 FILLER_18_144
*953 FILLER_18_147
*954 FILLER_18_15
*955 FILLER_18_150
*956 FILLER_18_153
*957 FILLER_18_156
*958 FILLER_18_159
*959 FILLER_18_162
*960 FILLER_18_165
*961 FILLER_18_168
*962 FILLER_18_171
*963 FILLER_18_174
*964 FILLER_18_177
*965 FILLER_18_18
*966 FILLER_18_185
*967 FILLER_18_188
*968 FILLER_18_191
*969 FILLER_18_194
*970 FILLER_18_197
*971 FILLER_18_200
*972 FILLER_18_203
*973 FILLER_18_206
*974 FILLER_18_209
*975 FILLER_18_21
*976 FILLER_18_212
*977 FILLER_18_215
*978 FILLER_18_218
*979 FILLER_18_221
*980 FILLER_18_224
*981 FILLER_18_227
*982 FILLER_18_230
*983 FILLER_18_233
*984 FILLER_18_236
*985 FILLER_18_239
*986 FILLER_18_24
*987 FILLER_18_242
*988 FILLER_18_245
*989 FILLER_18_248
*990 FILLER_18_251
*991 FILLER_18_253
*992 FILLER_18_264
*993 FILLER_18_267
*994 FILLER_18_27
*995 FILLER_18_270
*996 FILLER_18_273
*997 FILLER_18_276
*998 FILLER_18_279
*999 FILLER_18_282
*1000 FILLER_18_285
*1001 FILLER_18_288
*1002 FILLER_18_291
*1003 FILLER_18_294
*1004 FILLER_18_297
*1005 FILLER_18_3
*1006 FILLER_18_50
*1007 FILLER_18_53
*1008 FILLER_18_56
*1009 FILLER_18_59
*1010 FILLER_18_6
*1011 FILLER_18_62
*1012 FILLER_18_65
*1013 FILLER_18_68
*1014 FILLER_18_71
*1015 FILLER_18_74
*1016 FILLER_18_77
*1017 FILLER_18_80
*1018 FILLER_18_83
*1019 FILLER_18_85
*1020 FILLER_18_88
*1021 FILLER_18_9
*1022 FILLER_19_102
*1023 FILLER_19_105
*1024 FILLER_19_108
*1025 FILLER_19_111
*1026 FILLER_19_113
*1027 FILLER_19_116
*1028 FILLER_19_119
*1029 FILLER_19_12
*1030 FILLER_19_122
*1031 FILLER_19_125
*1032 FILLER_19_128
*1033 FILLER_19_131
*1034 FILLER_19_134
*1035 FILLER_19_137
*1036 FILLER_19_140
*1037 FILLER_19_143
*1038 FILLER_19_146
*1039 FILLER_19_149
*1040 FILLER_19_15
*1041 FILLER_19_152
*1042 FILLER_19_155
*1043 FILLER_19_158
*1044 FILLER_19_161
*1045 FILLER_19_164
*1046 FILLER_19_167
*1047 FILLER_19_169
*1048 FILLER_19_172
*1049 FILLER_19_175
*1050 FILLER_19_18
*1051 FILLER_19_182
*1052 FILLER_19_185
*1053 FILLER_19_188
*1054 FILLER_19_196
*1055 FILLER_19_199
*1056 FILLER_19_202
*1057 FILLER_19_205
*1058 FILLER_19_208
*1059 FILLER_19_21
*1060 FILLER_19_211
*1061 FILLER_19_214
*1062 FILLER_19_217
*1063 FILLER_19_220
*1064 FILLER_19_223
*1065 FILLER_19_225
*1066 FILLER_19_228
*1067 FILLER_19_231
*1068 FILLER_19_234
*1069 FILLER_19_237
*1070 FILLER_19_24
*1071 FILLER_19_240
*1072 FILLER_19_243
*1073 FILLER_19_246
*1074 FILLER_19_249
*1075 FILLER_19_252
*1076 FILLER_19_255
*1077 FILLER_19_258
*1078 FILLER_19_261
*1079 FILLER_19_264
*1080 FILLER_19_267
*1081 FILLER_19_27
*1082 FILLER_19_270
*1083 FILLER_19_273
*1084 FILLER_19_276
*1085 FILLER_19_279
*1086 FILLER_19_281
*1087 FILLER_19_284
*1088 FILLER_19_287
*1089 FILLER_19_290
*1090 FILLER_19_293
*1091 FILLER_19_296
*1092 FILLER_19_3
*1093 FILLER_19_30
*1094 FILLER_19_33
*1095 FILLER_19_36
*1096 FILLER_19_45
*1097 FILLER_19_48
*1098 FILLER_19_51
*1099 FILLER_19_54
*1100 FILLER_19_57
*1101 FILLER_19_6
*1102 FILLER_19_60
*1103 FILLER_19_63
*1104 FILLER_19_66
*1105 FILLER_19_69
*1106 FILLER_19_72
*1107 FILLER_19_75
*1108 FILLER_19_78
*1109 FILLER_19_81
*1110 FILLER_19_84
*1111 FILLER_19_87
*1112 FILLER_19_9
*1113 FILLER_19_90
*1114 FILLER_19_93
*1115 FILLER_19_96
*1116 FILLER_19_99
*1117 FILLER_1_102
*1118 FILLER_1_105
*1119 FILLER_1_108
*1120 FILLER_1_111
*1121 FILLER_1_113
*1122 FILLER_1_116
*1123 FILLER_1_119
*1124 FILLER_1_12
*1125 FILLER_1_122
*1126 FILLER_1_125
*1127 FILLER_1_128
*1128 FILLER_1_131
*1129 FILLER_1_134
*1130 FILLER_1_137
*1131 FILLER_1_140
*1132 FILLER_1_143
*1133 FILLER_1_146
*1134 FILLER_1_149
*1135 FILLER_1_15
*1136 FILLER_1_152
*1137 FILLER_1_155
*1138 FILLER_1_158
*1139 FILLER_1_161
*1140 FILLER_1_164
*1141 FILLER_1_167
*1142 FILLER_1_169
*1143 FILLER_1_172
*1144 FILLER_1_175
*1145 FILLER_1_178
*1146 FILLER_1_18
*1147 FILLER_1_181
*1148 FILLER_1_184
*1149 FILLER_1_187
*1150 FILLER_1_190
*1151 FILLER_1_193
*1152 FILLER_1_196
*1153 FILLER_1_199
*1154 FILLER_1_202
*1155 FILLER_1_205
*1156 FILLER_1_208
*1157 FILLER_1_21
*1158 FILLER_1_211
*1159 FILLER_1_214
*1160 FILLER_1_217
*1161 FILLER_1_220
*1162 FILLER_1_223
*1163 FILLER_1_225
*1164 FILLER_1_228
*1165 FILLER_1_231
*1166 FILLER_1_234
*1167 FILLER_1_237
*1168 FILLER_1_24
*1169 FILLER_1_240
*1170 FILLER_1_243
*1171 FILLER_1_246
*1172 FILLER_1_249
*1173 FILLER_1_252
*1174 FILLER_1_255
*1175 FILLER_1_258
*1176 FILLER_1_261
*1177 FILLER_1_264
*1178 FILLER_1_267
*1179 FILLER_1_27
*1180 FILLER_1_270
*1181 FILLER_1_273
*1182 FILLER_1_276
*1183 FILLER_1_279
*1184 FILLER_1_281
*1185 FILLER_1_284
*1186 FILLER_1_287
*1187 FILLER_1_290
*1188 FILLER_1_293
*1189 FILLER_1_296
*1190 FILLER_1_3
*1191 FILLER_1_30
*1192 FILLER_1_33
*1193 FILLER_1_36
*1194 FILLER_1_39
*1195 FILLER_1_42
*1196 FILLER_1_45
*1197 FILLER_1_48
*1198 FILLER_1_51
*1199 FILLER_1_54
*1200 FILLER_1_57
*1201 FILLER_1_6
*1202 FILLER_1_60
*1203 FILLER_1_63
*1204 FILLER_1_66
*1205 FILLER_1_69
*1206 FILLER_1_72
*1207 FILLER_1_75
*1208 FILLER_1_78
*1209 FILLER_1_81
*1210 FILLER_1_84
*1211 FILLER_1_87
*1212 FILLER_1_9
*1213 FILLER_1_90
*1214 FILLER_1_93
*1215 FILLER_1_96
*1216 FILLER_1_99
*1217 FILLER_20_100
*1218 FILLER_20_103
*1219 FILLER_20_106
*1220 FILLER_20_109
*1221 FILLER_20_112
*1222 FILLER_20_115
*1223 FILLER_20_118
*1224 FILLER_20_12
*1225 FILLER_20_121
*1226 FILLER_20_124
*1227 FILLER_20_127
*1228 FILLER_20_130
*1229 FILLER_20_133
*1230 FILLER_20_136
*1231 FILLER_20_139
*1232 FILLER_20_146
*1233 FILLER_20_149
*1234 FILLER_20_15
*1235 FILLER_20_152
*1236 FILLER_20_155
*1237 FILLER_20_158
*1238 FILLER_20_161
*1239 FILLER_20_164
*1240 FILLER_20_167
*1241 FILLER_20_170
*1242 FILLER_20_173
*1243 FILLER_20_176
*1244 FILLER_20_179
*1245 FILLER_20_18
*1246 FILLER_20_182
*1247 FILLER_20_185
*1248 FILLER_20_188
*1249 FILLER_20_191
*1250 FILLER_20_194
*1251 FILLER_20_197
*1252 FILLER_20_200
*1253 FILLER_20_203
*1254 FILLER_20_206
*1255 FILLER_20_209
*1256 FILLER_20_21
*1257 FILLER_20_212
*1258 FILLER_20_215
*1259 FILLER_20_218
*1260 FILLER_20_221
*1261 FILLER_20_224
*1262 FILLER_20_227
*1263 FILLER_20_230
*1264 FILLER_20_233
*1265 FILLER_20_236
*1266 FILLER_20_239
*1267 FILLER_20_24
*1268 FILLER_20_242
*1269 FILLER_20_245
*1270 FILLER_20_248
*1271 FILLER_20_251
*1272 FILLER_20_253
*1273 FILLER_20_256
*1274 FILLER_20_259
*1275 FILLER_20_262
*1276 FILLER_20_265
*1277 FILLER_20_268
*1278 FILLER_20_27
*1279 FILLER_20_271
*1280 FILLER_20_274
*1281 FILLER_20_277
*1282 FILLER_20_280
*1283 FILLER_20_283
*1284 FILLER_20_286
*1285 FILLER_20_289
*1286 FILLER_20_29
*1287 FILLER_20_292
*1288 FILLER_20_295
*1289 FILLER_20_298
*1290 FILLER_20_3
*1291 FILLER_20_32
*1292 FILLER_20_35
*1293 FILLER_20_44
*1294 FILLER_20_47
*1295 FILLER_20_50
*1296 FILLER_20_53
*1297 FILLER_20_56
*1298 FILLER_20_59
*1299 FILLER_20_6
*1300 FILLER_20_62
*1301 FILLER_20_65
*1302 FILLER_20_75
*1303 FILLER_20_78
*1304 FILLER_20_81
*1305 FILLER_20_85
*1306 FILLER_20_88
*1307 FILLER_20_9
*1308 FILLER_20_91
*1309 FILLER_20_94
*1310 FILLER_20_97
*1311 FILLER_21_100
*1312 FILLER_21_106
*1313 FILLER_21_109
*1314 FILLER_21_113
*1315 FILLER_21_116
*1316 FILLER_21_119
*1317 FILLER_21_12
*1318 FILLER_21_122
*1319 FILLER_21_125
*1320 FILLER_21_128
*1321 FILLER_21_131
*1322 FILLER_21_134
*1323 FILLER_21_137
*1324 FILLER_21_140
*1325 FILLER_21_143
*1326 FILLER_21_146
*1327 FILLER_21_149
*1328 FILLER_21_15
*1329 FILLER_21_152
*1330 FILLER_21_155
*1331 FILLER_21_158
*1332 FILLER_21_161
*1333 FILLER_21_164
*1334 FILLER_21_167
*1335 FILLER_21_169
*1336 FILLER_21_172
*1337 FILLER_21_175
*1338 FILLER_21_178
*1339 FILLER_21_18
*1340 FILLER_21_181
*1341 FILLER_21_184
*1342 FILLER_21_187
*1343 FILLER_21_190
*1344 FILLER_21_193
*1345 FILLER_21_196
*1346 FILLER_21_199
*1347 FILLER_21_202
*1348 FILLER_21_205
*1349 FILLER_21_208
*1350 FILLER_21_21
*1351 FILLER_21_211
*1352 FILLER_21_214
*1353 FILLER_21_217
*1354 FILLER_21_220
*1355 FILLER_21_223
*1356 FILLER_21_225
*1357 FILLER_21_228
*1358 FILLER_21_231
*1359 FILLER_21_234
*1360 FILLER_21_237
*1361 FILLER_21_24
*1362 FILLER_21_240
*1363 FILLER_21_243
*1364 FILLER_21_246
*1365 FILLER_21_249
*1366 FILLER_21_252
*1367 FILLER_21_266
*1368 FILLER_21_269
*1369 FILLER_21_27
*1370 FILLER_21_272
*1371 FILLER_21_275
*1372 FILLER_21_278
*1373 FILLER_21_281
*1374 FILLER_21_284
*1375 FILLER_21_287
*1376 FILLER_21_290
*1377 FILLER_21_293
*1378 FILLER_21_296
*1379 FILLER_21_3
*1380 FILLER_21_30
*1381 FILLER_21_33
*1382 FILLER_21_44
*1383 FILLER_21_47
*1384 FILLER_21_50
*1385 FILLER_21_53
*1386 FILLER_21_6
*1387 FILLER_21_61
*1388 FILLER_21_64
*1389 FILLER_21_67
*1390 FILLER_21_70
*1391 FILLER_21_73
*1392 FILLER_21_76
*1393 FILLER_21_79
*1394 FILLER_21_82
*1395 FILLER_21_85
*1396 FILLER_21_88
*1397 FILLER_21_9
*1398 FILLER_21_91
*1399 FILLER_21_94
*1400 FILLER_21_97
*1401 FILLER_22_100
*1402 FILLER_22_103
*1403 FILLER_22_106
*1404 FILLER_22_109
*1405 FILLER_22_112
*1406 FILLER_22_115
*1407 FILLER_22_118
*1408 FILLER_22_12
*1409 FILLER_22_121
*1410 FILLER_22_124
*1411 FILLER_22_127
*1412 FILLER_22_130
*1413 FILLER_22_133
*1414 FILLER_22_136
*1415 FILLER_22_139
*1416 FILLER_22_141
*1417 FILLER_22_144
*1418 FILLER_22_147
*1419 FILLER_22_15
*1420 FILLER_22_150
*1421 FILLER_22_153
*1422 FILLER_22_156
*1423 FILLER_22_159
*1424 FILLER_22_162
*1425 FILLER_22_165
*1426 FILLER_22_168
*1427 FILLER_22_171
*1428 FILLER_22_174
*1429 FILLER_22_18
*1430 FILLER_22_184
*1431 FILLER_22_187
*1432 FILLER_22_197
*1433 FILLER_22_200
*1434 FILLER_22_203
*1435 FILLER_22_206
*1436 FILLER_22_209
*1437 FILLER_22_21
*1438 FILLER_22_212
*1439 FILLER_22_215
*1440 FILLER_22_218
*1441 FILLER_22_221
*1442 FILLER_22_224
*1443 FILLER_22_227
*1444 FILLER_22_230
*1445 FILLER_22_233
*1446 FILLER_22_236
*1447 FILLER_22_239
*1448 FILLER_22_24
*1449 FILLER_22_242
*1450 FILLER_22_245
*1451 FILLER_22_248
*1452 FILLER_22_251
*1453 FILLER_22_253
*1454 FILLER_22_256
*1455 FILLER_22_259
*1456 FILLER_22_262
*1457 FILLER_22_27
*1458 FILLER_22_276
*1459 FILLER_22_279
*1460 FILLER_22_282
*1461 FILLER_22_285
*1462 FILLER_22_288
*1463 FILLER_22_29
*1464 FILLER_22_291
*1465 FILLER_22_294
*1466 FILLER_22_297
*1467 FILLER_22_3
*1468 FILLER_22_32
*1469 FILLER_22_49
*1470 FILLER_22_52
*1471 FILLER_22_55
*1472 FILLER_22_58
*1473 FILLER_22_6
*1474 FILLER_22_61
*1475 FILLER_22_64
*1476 FILLER_22_67
*1477 FILLER_22_70
*1478 FILLER_22_73
*1479 FILLER_22_76
*1480 FILLER_22_79
*1481 FILLER_22_82
*1482 FILLER_22_85
*1483 FILLER_22_88
*1484 FILLER_22_9
*1485 FILLER_22_91
*1486 FILLER_22_94
*1487 FILLER_22_97
*1488 FILLER_23_102
*1489 FILLER_23_105
*1490 FILLER_23_108
*1491 FILLER_23_111
*1492 FILLER_23_12
*1493 FILLER_23_120
*1494 FILLER_23_123
*1495 FILLER_23_126
*1496 FILLER_23_129
*1497 FILLER_23_132
*1498 FILLER_23_135
*1499 FILLER_23_138
*1500 FILLER_23_141
*1501 FILLER_23_144
*1502 FILLER_23_147
*1503 FILLER_23_15
*1504 FILLER_23_150
*1505 FILLER_23_153
*1506 FILLER_23_156
*1507 FILLER_23_159
*1508 FILLER_23_162
*1509 FILLER_23_165
*1510 FILLER_23_169
*1511 FILLER_23_172
*1512 FILLER_23_175
*1513 FILLER_23_178
*1514 FILLER_23_18
*1515 FILLER_23_181
*1516 FILLER_23_184
*1517 FILLER_23_187
*1518 FILLER_23_190
*1519 FILLER_23_193
*1520 FILLER_23_196
*1521 FILLER_23_204
*1522 FILLER_23_207
*1523 FILLER_23_210
*1524 FILLER_23_213
*1525 FILLER_23_216
*1526 FILLER_23_219
*1527 FILLER_23_222
*1528 FILLER_23_225
*1529 FILLER_23_228
*1530 FILLER_23_231
*1531 FILLER_23_234
*1532 FILLER_23_237
*1533 FILLER_23_240
*1534 FILLER_23_243
*1535 FILLER_23_246
*1536 FILLER_23_249
*1537 FILLER_23_252
*1538 FILLER_23_255
*1539 FILLER_23_258
*1540 FILLER_23_261
*1541 FILLER_23_264
*1542 FILLER_23_267
*1543 FILLER_23_270
*1544 FILLER_23_273
*1545 FILLER_23_276
*1546 FILLER_23_279
*1547 FILLER_23_281
*1548 FILLER_23_284
*1549 FILLER_23_287
*1550 FILLER_23_290
*1551 FILLER_23_293
*1552 FILLER_23_296
*1553 FILLER_23_3
*1554 FILLER_23_42
*1555 FILLER_23_45
*1556 FILLER_23_48
*1557 FILLER_23_51
*1558 FILLER_23_54
*1559 FILLER_23_57
*1560 FILLER_23_6
*1561 FILLER_23_60
*1562 FILLER_23_63
*1563 FILLER_23_66
*1564 FILLER_23_69
*1565 FILLER_23_72
*1566 FILLER_23_75
*1567 FILLER_23_78
*1568 FILLER_23_81
*1569 FILLER_23_84
*1570 FILLER_23_87
*1571 FILLER_23_9
*1572 FILLER_23_90
*1573 FILLER_23_93
*1574 FILLER_23_96
*1575 FILLER_23_99
*1576 FILLER_24_100
*1577 FILLER_24_103
*1578 FILLER_24_106
*1579 FILLER_24_109
*1580 FILLER_24_112
*1581 FILLER_24_115
*1582 FILLER_24_118
*1583 FILLER_24_12
*1584 FILLER_24_121
*1585 FILLER_24_124
*1586 FILLER_24_127
*1587 FILLER_24_130
*1588 FILLER_24_133
*1589 FILLER_24_136
*1590 FILLER_24_139
*1591 FILLER_24_141
*1592 FILLER_24_144
*1593 FILLER_24_147
*1594 FILLER_24_15
*1595 FILLER_24_150
*1596 FILLER_24_153
*1597 FILLER_24_156
*1598 FILLER_24_159
*1599 FILLER_24_162
*1600 FILLER_24_165
*1601 FILLER_24_168
*1602 FILLER_24_171
*1603 FILLER_24_174
*1604 FILLER_24_177
*1605 FILLER_24_18
*1606 FILLER_24_180
*1607 FILLER_24_183
*1608 FILLER_24_186
*1609 FILLER_24_189
*1610 FILLER_24_192
*1611 FILLER_24_195
*1612 FILLER_24_204
*1613 FILLER_24_207
*1614 FILLER_24_21
*1615 FILLER_24_210
*1616 FILLER_24_213
*1617 FILLER_24_216
*1618 FILLER_24_219
*1619 FILLER_24_222
*1620 FILLER_24_225
*1621 FILLER_24_228
*1622 FILLER_24_231
*1623 FILLER_24_234
*1624 FILLER_24_237
*1625 FILLER_24_24
*1626 FILLER_24_240
*1627 FILLER_24_243
*1628 FILLER_24_246
*1629 FILLER_24_249
*1630 FILLER_24_253
*1631 FILLER_24_256
*1632 FILLER_24_259